analytic_data/folder0/output_current_1.csv
# output_current_1.csv run at 2000-01-01 00:01:00 UTC on 907 links
link_name,currA_mag,currA_angle,currB_mag,currB_angle,currC_mag,currC_angle
Source_Impedance,9.269774,-0.484260,8.202512,3.996363,10.875652,1.833076
TR1,9.269774,-0.484260,8.202512,3.996363,10.875652,1.833076
LINE1,316.039393,-0.848009,171.268189,3.373525,256.793873,1.254381
LINE2,316.039393,-0.848009,171.268189,3.373525,256.793873,1.254381
LINE3,316.039393,-0.848009,171.268189,3.373525,256.793873,1.254381
LINE4,316.039393,-0.848009,171.268189,3.373525,256.793873,1.254381
LINE5,316.039393,-0.848009,171.268189,3.373525,256.793873,1.254381
LINE6,316.039393,-0.848009,171.268189,3.373525,256.793873,1.254381
LINE7,316.039393,-0.848009,171.268189,3.373525,256.793873,1.254381
LINE8,316.039393,-0.848009,171.268189,3.373525,256.793873,1.254381
LINE9,316.039393,-0.848009,171.268189,3.373525,256.793873,1.254381
LINE10,316.039393,-0.848009,171.268189,3.373525,256.793873,1.254381
LINE11,316.039393,-0.848009,171.268189,3.373525,256.793873,1.254381
LINE12,316.039393,-0.848009,171.268189,3.373525,256.793873,1.254381
LINE13,316.039393,-0.848009,171.268189,3.373525,256.793873,1.254381
LINE14,316.039393,-0.848009,171.268189,3.373525,256.793873,1.254381
LINE15,0.000000,-0.437342,0.000000,4.012716,0.000000,1.506822
LINE16,316.039393,-0.848009,171.268189,3.373525,256.793873,1.254381
LINE17,0.000000,-0.149287,0.000000,4.306951,0.000000,-0.024932
LINE18,316.039393,-0.848009,171.268189,3.373525,256.793873,1.254381
LINE19,0.000000,-0.316389,0.000000,-1.007726,0.000000,1.577104
LINE20,316.039393,-0.848009,171.268189,3.373525,256.793873,1.254381
LINE21,0.000000,-0.405438,0.000000,-1.007726,0.000000,1.631591
LINE22,316.039393,-0.848009,171.268189,3.373525,256.793873,1.254381
LINE23,0.000000,-0.719670,0.000000,4.687457,0.000000,1.647080
LINE24,316.039393,-0.848009,171.268189,3.373525,256.793873,1.254381
LINE25,0.000000,-0.612935,0.000000,4.012716,0.000000,1.631591
LINE26,0.384275,-0.853049,0.000000,3.707537,0.000000,1.576460
LINE27,315.655123,-0.848003,171.268189,3.373525,256.793873,1.254381
LINE28,0.000000,-0.583531,0.000000,3.902059,0.000000,3.116661
LINE29,0.153710,-0.853049,0.000000,1.496068,0.000000,1.423718
LINE30,0.230565,-0.853048,0.000000,3.747823,0.000000,1.577257
LINE31,315.655123,-0.848003,171.268189,3.373525,256.793873,1.254381
LINE32,0.000000,-0.575318,0.000000,3.840911,0.000000,1.667654
LINE33,0.153710,-0.853049,0.000000,-1.320143,0.000000,3.960029
LINE34,0.230565,-0.853048,0.000000,4.208471,0.000000,1.617913
LINE35,0.000000,0.111324,0.404673,3.337208,0.000000,-1.554651
LINE36,315.655123,-0.848003,170.863783,3.373611,256.793873,1.254381
LINE37,0.000000,-0.588248,0.000000,3.829018,0.000000,3.116661
LINE38,0.230565,-0.853048,0.000000,3.661331,0.000000,1.522239
LINE39,0.000000,0.146175,0.219198,3.337208,0.000000,-1.545885
LINE40,0.000000,0.641182,0.185475,3.337208,0.000000,4.666949
LINE41,315.655123,-0.848003,170.863783,3.373611,256.793873,1.254381
LINE42,0.000000,0.605933,0.000000,3.556164,0.000000,2.346407
LINE43,0.000000,-0.719670,0.000000,4.012716,0.000000,4.625038
LINE44,0.230565,-0.853048,0.000000,3.481244,0.000000,1.521656
LINE45,0.000000,0.309859,0.219198,3.337208,0.000000,-1.568227
LINE46,0.000000,-1.425375,0.185475,3.337208,0.000000,1.482205
LINE47,315.655123,-0.848003,170.863783,3.373611,256.793873,1.254381
LINE48,0.000000,0.377220,0.000000,3.546698,0.000000,2.051628
LINE49,0.000000,-0.405438,0.000000,4.223809,0.000000,4.601730
LINE50,0.230565,-0.853048,0.000000,2.869782,0.000000,1.567573
LINE51,0.000000,0.614083,0.219198,3.337208,0.000000,-1.560639
LINE52,315.655123,-0.848003,170.863783,3.373611,256.793873,1.254381
LINE53,0.000000,-0.180960,0.000000,3.629551,0.000000,0.072950
LINE54,0.000000,0.211351,0.000000,3.529271,0.000000,3.039567
LINE55,0.000000,-0.419723,0.000000,3.902059,0.000000,1.600497
LINE56,0.230565,-0.853048,0.000000,2.576705,0.000000,1.601069
LINE57,0.000000,0.066265,0.219198,3.337208,0.000000,-1.544045
LINE58,315.655123,-0.848003,170.863783,3.373611,256.793873,1.254381
LINE59,0.000000,0.127656,0.000000,3.383684,0.000000,-1.256581
LINE60,0.000000,0.162507,0.000000,3.599323,0.000000,2.600144
LINE61,0.000000,-0.668433,0.000000,4.168311,0.000000,1.589587
LINE62,0.230565,-0.853048,0.000000,0.247950,0.000000,4.613686
LINE63,0.000000,0.559753,0.219198,3.337208,0.000000,-1.441372
LINE64,3.808337,-0.857527,170.863783,3.373611,256.793873,1.254381
LINE65,311.846961,-0.847887,0.000000,2.651331,0.000000,-1.460759
LINE66,0.000000,0.229064,0.000000,4.336681,0.000000,-1.346065
LINE67,0.000000,0.488113,0.000000,3.505429,0.000000,2.648815
LINE68,0.000000,-0.869086,0.000000,3.902059,0.000000,1.590106
LINE69,0.230565,-0.853048,0.000000,-1.074884,0.000000,1.665255
LINE70,0.000000,3.408694,0.219198,3.337208,0.000000,4.700177
LINE71,3.808337,-0.857527,170.863783,3.373611,256.793873,1.254381
LINE72,222.862654,-0.847704,0.000000,-0.004455,0.000000,-1.439260
LINE73,88.984319,-0.848343,0.000000,3.606715,0.000000,1.554339
LINE74,0.000000,0.241216,0.000000,3.817836,0.000000,-0.579872
LINE75,0.000000,1.190828,0.000000,3.508014,0.000000,2.807299
LINE76,0.000000,-1.100177,0.000000,3.685185,0.000000,1.590886
LINE77,0.000000,3.386300,0.219198,3.337208,0.000000,1.555631
LINE78,3.808337,-0.857527,170.863783,3.373611,256.793873,1.254381
LINE79,0.000000,0.285183,0.000000,3.564090,0.000000,-0.842724
LINE80,0.000000,1.124117,0.000000,3.513183,0.000000,2.784426
LINE81,0.000000,-1.149623,0.000000,3.690101,0.000000,1.590177
LINE82,0.000000,3.488709,0.219198,3.337208,0.000000,-0.490686
LINE83,3.808337,-0.857527,170.863783,3.373611,256.793873,1.254381
LINE84,0.000000,0.241243,0.000000,-0.433959,0.000000,-1.526379
LINE85,0.000000,1.183873,0.000000,3.518185,0.000000,2.781817
LINE86,0.000000,-1.024391,0.000000,3.804332,0.000000,1.588452
LINE87,3.808337,-0.857527,170.863783,3.373611,256.793873,1.254381
LINE88,0.000000,0.476228,0.000000,0.476228,0.000000,4.230890
LINE89,0.000000,1.135161,0.000000,3.521828,0.000000,2.816202
LINE90,0.000000,-0.869086,0.000000,3.760162,0.000000,1.597381
LINE91,3.808337,-0.857527,170.863783,3.373611,256.793873,1.254381
LINE92,0.000000,1.160511,0.000000,3.667481,0.000000,2.674345
LINE93,0.000000,-0.810330,0.000000,3.902059,0.000000,1.565393
LINE94,3.808337,-0.857527,170.863783,3.373611,256.793873,1.254381
LINE95,0.000000,1.770309,0.000000,3.936925,0.000000,3.333672
LINE96,0.000000,3.116661,0.000000,3.902059,0.000000,-1.564488
LINE97,3.808337,-0.857527,170.863783,3.373611,256.793873,1.254381
LINE98,0.000000,1.811632,0.000000,3.776713,0.000000,4.011858
LINE99,0.000000,1.545864,0.000000,-0.024932,0.000000,3.116661
LINE100,3.808337,-0.857527,170.863783,3.373611,256.793873,1.254381
LINE101,0.000000,0.685742,0.000000,3.686008,0.000000,3.071520
LINE102,0.000000,0.000000,0.000000,0.000000,0.000000,3.116661
LINE103,0.257546,-0.854271,0.683739,3.340054,0.585469,1.255316
LINE104,3.550793,-0.857763,170.180430,3.373746,256.208405,1.254378
LINE105,0.000000,0.486899,0.000000,3.654823,0.000000,2.408013
LINE106,0.257546,-0.854271,0.683739,3.340054,0.585469,1.255316
LINE107,3.550793,-0.857763,170.180430,3.373746,256.208405,1.254378
LINE108,0.000000,0.294226,0.000000,3.574220,0.000000,3.904852
LINE109,0.257546,-0.854271,0.683739,3.340054,0.585469,1.255316
LINE110,3.550793,-0.857763,170.180430,3.373746,256.208405,1.254378
LINE111,0.000000,0.360738,0.000000,3.648607,0.000000,3.992081
LINE112,0.257546,-0.854271,0.683739,3.340054,0.585469,1.255316
LINE113,3.550793,-0.857763,170.180430,3.373746,256.208405,1.254378
LINE114,0.000000,0.354353,0.000000,3.651185,0.000000,3.948248
LINE115,0.257546,-0.854271,0.683739,3.340054,0.585469,1.255316
LINE116,0.213419,-0.855916,0.464013,3.343125,0.589422,1.254889
LINE117,3.337374,-0.857881,169.716635,3.373829,255.618982,1.254377
LINE118,0.000000,0.336816,0.000000,3.652529,0.000000,4.115587
LINE119,0.257546,-0.854271,0.683739,3.340054,0.585469,1.255316
LINE120,0.000000,3.281809,0.000000,3.438411,0.000000,-1.553672
LINE121,0.213419,-0.855916,0.464013,3.343125,0.589422,1.254889
LINE122,3.337374,-0.857881,169.716635,3.373829,255.618982,1.254377
LINE123,0.000000,0.340498,0.000000,3.635973,0.000000,4.004736
LINE124,0.257546,-0.854271,0.683739,3.340054,0.585469,1.255316
LINE125,0.000000,3.116661,0.000000,3.760162,0.000000,-1.559345
LINE126,0.213419,-0.855916,0.464013,3.343125,0.589422,1.254889
LINE127,3.337374,-0.857881,169.716635,3.373829,255.618982,1.254377
LINE128,0.000000,0.245999,0.000000,3.590378,0.000000,4.555483
LINE129,0.257546,-0.854271,0.683739,3.340054,0.585469,1.255316
LINE130,0.000000,3.281809,0.000000,4.687457,0.000000,-1.566765
LINE131,0.213419,-0.855916,0.000000,3.459192,0.000000,4.480303
LINE132,0.000000,3.554870,0.464013,3.343125,0.589422,1.254889
LINE133,3.337374,-0.857881,169.716635,3.373829,255.618982,1.254377
LINE134,0.000000,0.286581,0.000000,3.594359,0.000000,4.425424
LINE135,0.257546,-0.854271,0.683739,3.340054,0.585469,1.255316
LINE136,0.000000,3.419546,0.000000,3.116661,0.000000,4.708761
LINE137,0.213419,-0.855916,0.000000,3.431897,0.000000,4.512021
LINE138,0.000000,3.547741,0.464013,3.343125,0.589422,1.254889
LINE139,3.337374,-0.857881,169.716635,3.373829,255.618982,1.254377
LINE140,0.000000,0.221737,0.000000,3.606168,0.000000,4.455728
LINE141,0.257546,-0.854271,0.683739,3.340054,0.585469,1.255316
LINE142,0.000000,3.387608,0.000000,0.000000,0.000000,-1.567327
LINE143,0.213419,-0.855916,0.000000,3.433642,0.000000,4.538016
LINE144,0.000000,3.547306,0.464013,3.343125,0.589422,1.254889
LINE145,3.337374,-0.857881,169.716635,3.373829,255.618982,1.254377
LINE146,0.000000,0.452759,0.000000,3.662092,0.000000,3.503632
LINE147,0.257546,-0.854271,0.683739,3.340054,0.585469,1.255316
LINE148,0.000000,3.361639,0.000000,3.580308,0.000000,-1.570099
LINE149,0.213419,-0.855916,0.000000,3.394009,0.000000,4.556002
LINE150,0.000000,3.474488,0.000000,1.418672,0.589422,1.254889
LINE151,0.000000,-0.554921,0.464013,3.343125,0.000000,1.588307
LINE152,3.337374,-0.857881,169.716635,3.373829,255.618982,1.254377
LINE153,0.000000,0.753225,0.000000,3.826224,0.000000,1.932637
LINE154,0.257546,-0.854271,0.683739,3.340054,0.585469,1.255316
LINE155,0.000000,3.475431,0.000000,3.902059,0.000000,4.708287
LINE156,0.213419,-0.855916,0.000000,3.324217,0.000000,4.554699
LINE157,0.000000,3.476011,0.000000,1.408420,0.589422,1.254889
LINE158,0.000000,-0.599825,0.464013,3.343125,0.000000,1.590580
LINE159,3.337374,-0.857881,169.716635,3.373829,255.618982,1.254377
LINE160,0.000000,0.268330,0.000000,2.982538,0.000000,4.007058
LINE161,0.000000,0.018987,0.233572,3.340053,0.000000,1.377039
LINE162,0.257546,-0.854271,0.450167,3.340055,0.585469,1.255316
LINE163,0.000000,3.116661,0.000000,0.000000,0.000000,4.711866
LINE164,0.213419,-0.855916,0.000000,3.340250,0.000000,4.550198
LINE165,0.000000,3.465177,0.000000,1.409657,0.589422,1.254889
LINE166,0.000000,-0.598207,0.464013,3.343125,0.000000,1.586178
LINE167,3.337374,-0.857881,169.716635,3.373829,255.618982,1.254377
LINE168,0.000000,2.530927,0.000000,3.726461,0.000000,1.872071
LINE169,0.000000,3.090663,0.233572,3.340053,0.000000,-0.500136
LINE170,0.257546,-0.854271,0.450167,3.340055,0.585469,1.255316
LINE171,0.000000,3.361639,0.000000,-0.024932,0.000000,-1.560912
LINE172,0.213419,-0.855916,0.000000,3.323049,0.000000,4.580003
LINE173,0.000000,3.450444,0.000000,1.328711,0.000000,3.414673
LINE174,0.000000,0.002718,0.000000,4.206592,0.589422,1.254889
LINE175,0.000000,-0.592882,0.464013,3.343125,0.000000,1.606816
LINE176,3.337374,-0.857881,169.716635,3.373829,255.618982,1.254377
LINE177,0.000000,0.317317,0.233572,3.340053,0.000000,1.597676
LINE178,0.257546,-0.854271,0.450167,3.340055,0.000000,-0.669577
LINE179,0.000000,0.726865,0.000000,4.345753,0.585469,1.255316
LINE180,0.000000,4.687457,0.000000,4.687457,0.000000,-1.566719
LINE181,0.213419,-0.855916,0.000000,3.270014,0.000000,4.623703
LINE182,0.000000,3.548108,0.000000,1.265966,0.000000,3.181285
LINE183,0.000000,-0.069549,0.000000,4.128818,0.589422,1.254889
LINE184,0.000000,-1.110679,0.464013,3.343125,0.000000,1.581569
LINE185,3.337374,-0.857881,169.716635,3.373829,255.618982,1.254377
LINE186,0.257546,-0.854271,0.450167,3.340055,0.000000,-0.705514
LINE187,0.000000,0.725146,0.000000,4.310505,0.585469,1.255316
LINE188,0.000000,0.000000,0.000000,4.687457,0.000000,-1.538175
LINE189,0.213419,-0.855916,0.000000,3.250561,0.000000,4.599657
LINE190,0.000000,2.255310,0.000000,0.185299,0.000000,-0.596323
LINE191,0.000000,3.685114,0.000000,1.390777,0.000000,3.005096
LINE192,0.000000,0.095337,0.000000,4.145092,0.589422,1.254889
LINE193,0.000000,-0.998844,0.464013,3.343125,0.000000,1.583402
LINE194,3.337374,-0.857881,169.716635,3.373829,255.618982,1.254377
LINE195,0.257546,-0.854271,0.450167,3.340055,0.000000,-1.128843
LINE196,0.000000,0.151150,0.000000,0.565009,0.186481,1.255315
LINE197,0.000000,0.715606,0.000000,4.340287,0.398987,1.255317
LINE198,0.000000,2.653013,0.000000,1.545864,0.000000,-1.569042
LINE199,0.213419,-0.855916,0.000000,3.278398,0.000000,4.606752
LINE200,0.000000,0.633336,0.000000,-0.259325,0.000000,0.447949
LINE201,0.000000,3.599643,0.000000,1.806873,0.000000,4.677736
LINE202,0.000000,0.018219,0.000000,4.223679,0.589422,1.254889
LINE203,0.000000,-0.754221,0.464013,3.343125,0.000000,1.577040
LINE204,3.337374,-0.857881,169.716635,3.373829,255.618982,1.254377
LINE205,0.257546,-0.854271,0.000000,0.335679,0.000000,1.661375
LINE206,0.000000,-0.186815,0.450167,3.340055,0.000000,4.456580
LINE207,0.000000,1.580751,0.000000,3.181349,0.186481,1.255315
LINE208,0.000000,0.481308,0.000000,-0.546172,0.398987,1.255317
LINE209,0.000000,3.116661,0.000000,-0.024932,0.000000,-1.550837
LINE210,0.213419,-0.855916,0.000000,3.301751,0.000000,4.592246
LINE211,0.000000,3.987947,0.000000,1.583820,0.000000,-1.064438
LINE212,0.000000,0.290758,0.000000,4.415861,0.589422,1.254889
LINE213,0.000000,-0.758954,0.464013,3.343125,0.000000,1.587744
LINE214,3.337374,-0.857881,169.716635,3.373829,255.618982,1.254377
LINE215,0.257546,-0.854271,0.000000,2.703743,0.000000,4.286074
LINE216,0.000000,-0.543283,0.450167,3.340055,0.000000,4.504121
LINE217,0.000000,-0.025544,0.000000,-1.472204,0.398987,1.255317
LINE218,0.000000,0.000000,0.000000,0.000000,0.000000,-1.570343
LINE219,0.213419,-0.855916,0.000000,3.292215,0.000000,4.594651
LINE220,0.000000,3.915668,0.000000,1.609170,0.000000,-1.273598
LINE221,0.000000,0.875016,0.000000,4.376160,0.589422,1.254889
LINE222,0.000000,-0.622268,0.464013,3.343125,0.000000,1.621630
LINE223,3.337374,-0.857881,169.716635,3.373829,255.618982,1.254377
LINE224,0.257546,-0.854271,0.000000,1.650795,0.000000,1.623828
LINE225,0.000000,1.392425,0.450167,3.340055,0.000000,4.626672
LINE226,0.000000,-0.503080,0.000000,-1.050798,0.398987,1.255317
LINE227,0.213419,-0.855916,0.000000,3.352813,0.000000,4.580479
LINE228,0.000000,4.084236,0.000000,1.678681,0.000000,-0.964001
LINE229,0.000000,0.742843,0.000000,4.340129,0.589422,1.254889
LINE230,0.000000,-0.667537,0.464013,3.343125,0.000000,1.621940
LINE231,3.337374,-0.857881,169.716635,3.373829,255.618982,1.254377
LINE232,0.000000,-0.016616,0.450167,3.340055,0.000000,4.660629
LINE233,0.000000,-0.975560,0.000000,-0.975560,0.000000,0.736569
LINE234,0.000000,-0.194728,0.000000,4.554432,0.398987,1.255317
LINE235,0.213419,-0.855916,0.000000,3.450834,0.000000,2.432353
LINE236,0.000000,4.115459,0.000000,1.412717,0.000000,-0.028973
LINE237,0.000000,0.521949,0.000000,4.225312,0.589422,1.254889
LINE238,0.000000,-0.736652,0.464013,3.343125,0.000000,1.629673
LINE239,3.337374,-0.857881,169.716635,3.373829,255.618982,1.254377
LINE240,0.000000,0.179203,0.450167,3.340055,0.000000,-1.565005
LINE241,0.000000,-0.150932,0.000000,3.443580,0.398987,1.255317
LINE242,0.213419,-0.855916,0.000000,3.441340,0.000000,4.488605
LINE243,0.000000,4.124759,0.000000,1.535930,0.000000,-0.593164
LINE244,0.000000,1.004598,0.000000,4.227382,0.589422,1.254889
LINE245,0.000000,3.808738,0.464013,3.343125,0.000000,1.624380
LINE246,3.337374,-0.857881,169.716635,3.373829,255.618982,1.254377
LINE247,0.000000,3.740556,0.242071,3.340055,0.000000,1.491628
LINE248,0.000000,2.634569,0.208096,3.340055,0.000000,1.497979
LINE249,0.000000,1.890242,0.000000,0.347490,0.398987,1.255317
LINE250,0.213419,-0.855916,0.000000,3.496445,0.000000,4.648772
LINE251,0.000000,3.209066,0.000000,0.939081,0.000000,1.132549
LINE252,0.000000,1.420168,0.000000,4.376368,0.589422,1.254889
LINE253,0.000000,3.850586,0.464013,3.343125,0.000000,1.614486
LINE254,0.195103,-0.859317,0.000000,0.437197,0.000000,2.026639
LINE255,3.142272,-0.857792,169.716635,3.373829,255.618982,1.254377
LINE256,0.000000,0.277031,0.000000,2.442941,0.398987,1.255317
LINE257,0.213419,-0.855916,0.000000,3.386644,0.000000,2.442266
LINE258,0.000000,3.062961,0.000000,0.202757,0.000000,3.128375
LINE259,0.000000,1.533645,0.000000,4.328929,0.589422,1.254889
LINE260,0.000000,2.782697,0.464013,3.343125,0.000000,1.565838
LINE261,0.195103,-0.859317,0.000000,0.408841,0.000000,1.996267
LINE262,3.142272,-0.857792,169.716635,3.373829,255.618982,1.254377
LINE263,0.000000,1.501276,0.000000,3.743082,0.398987,1.255317
LINE264,0.213419,-0.855916,0.000000,3.113365,0.000000,3.617160
LINE265,0.000000,2.939190,0.000000,-0.024395,0.000000,2.377402
LINE266,0.000000,1.654852,0.000000,4.387851,0.589422,1.254889
LINE267,0.000000,-0.009336,0.238393,3.343125,0.000000,2.025952
LINE268,0.000000,2.313864,0.225621,3.343125,0.000000,1.685654
LINE269,0.195103,-0.859317,0.000000,0.387098,0.000000,2.031229
LINE270,0.000000,0.210844,0.000000,3.893693,0.235112,1.252821
LINE271,3.142272,-0.857792,169.716635,3.373829,255.383871,1.254379
LINE272,0.213419,-0.855916,0.000000,2.221096,0.000000,4.485689
LINE273,0.000000,-1.493321,0.000000,-1.493321,0.000000,1.904552
LINE274,0.000000,1.703697,0.000000,4.494433,0.589422,1.254889
LINE275,0.000000,-0.212482,0.238393,3.343125,0.000000,3.665010
LINE276,0.000000,2.196017,0.225621,3.343125,0.000000,2.252836
LINE277,0.195103,-0.859317,0.000000,0.358155,0.000000,1.980736
LINE278,0.000000,0.366023,0.000000,3.729881,0.235112,1.252821
LINE279,3.142272,-0.857792,169.716635,3.373829,255.383871,1.254379
LINE280,0.213419,-0.855916,0.000000,-1.046698,0.000000,1.505927
LINE281,0.000000,1.470302,0.000000,3.577621,0.000000,3.122527
LINE282,0.000000,1.696080,0.000000,-1.415739,0.589422,1.254889
LINE283,0.000000,2.783067,0.225621,3.343125,0.000000,1.618138
LINE284,0.195103,-0.859317,0.000000,0.377649,0.000000,1.962851
LINE285,0.000000,-1.200262,0.000000,3.537879,0.235112,1.252821
LINE286,1.540220,-0.854960,168.166113,3.374041,229.198206,1.254520
LINE287,1.602064,-0.860515,1.550933,3.350908,26.185687,1.253144
LINE288,0.213419,-0.855916,0.000000,2.678461,0.000000,4.663979
LINE289,0.000000,-0.666782,0.000000,2.892280,0.000000,2.010399
LINE290,0.000000,-0.122786,0.000000,3.476712,0.379851,1.254890
LINE291,0.000000,0.161089,0.000000,4.488411,0.209571,1.254888
LINE292,0.000000,2.868080,0.225621,3.343125,0.000000,4.512076
LINE293,0.195103,-0.859317,0.000000,0.373661,0.000000,1.982503
LINE294,0.000000,-1.129600,0.000000,3.630380,0.235112,1.252821
LINE295,1.540220,-0.854960,168.166113,3.374041,229.198206,1.254520
LINE296,1.602064,-0.860515,1.550933,3.350908,26.185687,1.253144
LINE297,0.000000,-0.348536,0.000000,-1.465999,0.379851,1.254890
LINE298,0.000000,0.903407,0.000000,4.336155,0.209571,1.254888
LINE299,0.000000,2.814381,0.225621,3.343125,0.000000,4.522745
LINE300,0.195103,-0.859317,0.000000,0.426801,0.000000,2.006105
LINE301,0.000000,4.139920,0.000000,3.467700,0.235112,1.252821
LINE302,1.540220,-0.854960,168.166113,3.374041,229.198206,1.254520
LINE303,1.602064,-0.860515,1.550933,3.350908,26.185687,1.253144
LINE304,0.000000,1.697410,0.000000,2.578571,0.379851,1.254890
LINE305,0.000000,2.129261,0.000000,4.626750,0.209571,1.254888
LINE306,0.000000,2.099817,0.225621,3.343125,0.000000,-0.831234
LINE307,0.195103,-0.859317,0.000000,0.404296,0.000000,2.043744
LINE308,0.000000,3.923074,0.000000,3.440090,0.235112,1.252821
LINE309,1.540220,-0.854960,168.166113,3.374041,229.198206,1.254520
LINE310,1.602064,-0.860515,1.550933,3.350908,26.185687,1.253144
LINE311,0.000000,3.290401,0.000000,1.846391,0.379851,1.254890
LINE312,0.000000,1.054789,0.000000,3.110452,0.209571,1.254888
LINE313,0.000000,-1.045910,0.225621,3.343125,0.000000,4.591263
LINE314,0.195103,-0.859317,0.000000,0.406099,0.000000,2.118749
LINE315,0.000000,-0.478674,0.000000,0.022671,0.235112,1.252821
LINE316,0.453609,-0.861683,0.000000,3.278323,0.000000,-1.546195
LINE317,1.086625,-0.852154,168.166113,3.374041,229.198206,1.254520
LINE318,1.602064,-0.860515,1.550933,3.350908,26.185687,1.253144
LINE319,0.000000,2.922729,0.000000,3.402259,0.379851,1.254890
LINE320,0.000000,3.036646,0.000000,-0.033347,0.209571,1.254888
LINE321,0.195103,-0.859317,0.000000,0.411870,0.000000,2.032872
LINE322,0.000000,-1.484779,0.000000,1.412188,0.235112,1.252821
LINE323,0.453609,-0.861683,0.000000,3.232535,0.000000,-1.537957
LINE324,1.086625,-0.852154,168.166113,3.374041,229.198206,1.254520
LINE325,1.602064,-0.860515,1.550933,3.350908,26.185687,1.253144
LINE326,0.000000,1.372252,0.000000,2.845989,0.209571,1.254888
LINE327,0.195103,-0.859317,0.000000,0.241235,0.000000,2.403964
LINE328,0.000000,3.735927,0.000000,3.001920,0.235112,1.252821
LINE329,0.453609,-0.861683,0.000000,3.210644,0.000000,-1.538335
LINE330,0.000000,-0.573804,0.000000,0.853239,228.942919,1.254550
LINE331,1.086625,-0.852154,168.166113,3.374041,0.255384,1.226943
LINE332,1.602064,-0.860515,1.550933,3.350908,26.185687,1.253144
LINE333,0.195103,-0.859317,0.000000,0.258974,0.000000,2.756488
LINE334,0.000000,0.111849,0.000000,-1.557361,0.235112,1.252821
LINE335,0.453609,-0.861683,0.000000,3.230336,0.000000,-1.540527
LINE336,0.000000,0.935635,0.000000,3.373591,228.942919,1.254550
LINE337,0.000000,0.044767,0.237914,3.358170,0.000000,1.698483
LINE338,1.086625,-0.852154,167.928230,3.374063,0.255384,1.226943
LINE339,1.602064,-0.860515,1.550933,3.350908,26.185687,1.253144
LINE340,0.195103,-0.859317,0.000000,0.273587,0.000000,2.830482
LINE341,0.000000,3.847197,0.000000,3.847197,0.235112,1.252821
LINE342,0.220324,-0.861684,0.000000,1.517329,0.000000,1.295465
LINE343,0.233285,-0.861683,0.000000,3.244879,0.000000,-1.531731
LINE344,0.000000,0.043932,0.237914,3.358170,0.000000,1.701382
LINE345,1.086625,-0.852154,167.928230,3.374063,0.255384,1.226943
LINE346,1.602064,-0.860515,1.550933,3.350908,26.185687,1.253144
LINE347,0.195103,-0.859317,0.000000,0.137300,0.000000,2.505072
LINE348,0.220324,-0.861684,0.000000,-1.433292,0.000000,-1.451685
LINE349,0.233285,-0.861683,0.000000,3.533249,0.000000,4.710892
LINE350,0.000000,-0.011398,0.237914,3.358170,0.000000,1.796587
LINE351,1.086625,-0.852154,167.928230,3.374063,0.255384,1.226943
LINE352,1.602064,-0.860515,1.550933,3.350908,26.185687,1.253144
LINE353,0.195103,-0.859317,0.000000,0.698982,0.000000,3.995981
LINE354,0.233285,-0.861683,0.000000,3.347843,0.000000,4.682047
LINE355,0.000000,0.145411,0.237914,3.358170,0.000000,1.711219
LINE356,1.086625,-0.852154,167.928230,3.374063,0.255384,1.226943
LINE357,1.602064,-0.860515,1.550933,3.350908,26.185687,1.253144
LINE358,0.195103,-0.859317,0.000000,1.395734,0.000000,4.003959
LINE359,0.233285,-0.861683,0.000000,3.823544,0.000000,4.709227
LINE360,0.000000,0.332868,0.237914,3.358170,0.000000,4.552213
LINE361,1.086625,-0.852154,167.928230,3.374063,0.255384,1.226943
LINE362,1.602064,-0.860515,1.550933,3.350908,26.185687,1.253144
LINE363,0.195103,-0.859317,0.000000,3.440145,0.000000,4.314483
LINE364,0.233285,-0.861683,0.000000,3.830420,0.000000,4.681918
LINE365,0.000000,0.890307,0.237914,3.358170,0.000000,4.691509
LINE366,1.086625,-0.852154,167.928230,3.374063,0.255384,1.226943
LINE367,1.602064,-0.860515,1.550933,3.350908,26.185687,1.253144
LINE368,0.195103,-0.859317,0.000000,3.266701,0.000000,1.999444
LINE369,0.233285,-0.861683,0.000000,3.525361,0.000000,-1.517350
LINE370,0.000000,1.695098,0.237914,3.358170,0.000000,1.664086
LINE371,1.086625,-0.852154,167.928230,3.374063,0.255384,1.226943
LINE372,1.602064,-0.860515,1.550933,3.350908,26.185687,1.253144
LINE373,0.195103,-0.859317,0.000000,0.726617,0.000000,4.684467
LINE374,0.233285,-0.861683,0.000000,3.597201,0.000000,4.618932
LINE375,0.000000,0.915644,0.237914,3.358170,0.000000,4.607084
LINE376,1.086625,-0.852154,167.928230,3.374063,0.255384,1.226943
LINE377,1.602064,-0.860515,1.550933,3.350908,1.477112,1.252562
LINE378,0.000000,2.185261,0.000000,-1.493525,24.708575,1.253179
LINE379,0.195103,-0.859317,0.000000,0.358143,0.000000,4.635801
LINE380,0.233285,-0.861683,0.000000,0.835688,0.000000,-1.184599
LINE381,0.000000,0.719903,0.237914,3.358170,0.000000,-1.559601
LINE382,1.086625,-0.852154,167.928230,3.374063,0.255384,1.226943
LINE383,1.602064,-0.860515,1.550933,3.350908,1.477112,1.252562
LINE384,0.000000,3.062628,0.000000,-1.186126,24.708575,1.253179
LINE385,0.000000,1.827313,0.000000,3.227329,0.000000,4.711223
LINE386,0.195103,-0.859317,0.000000,-1.063743,0.000000,1.614717
LINE387,0.233285,-0.861683,0.000000,0.386180,0.000000,4.657138
LINE388,0.000000,-0.066841,0.237914,3.358170,0.000000,-1.485566
LINE389,1.086625,-0.852154,167.928230,3.374063,0.255384,1.226943
LINE390,1.602064,-0.860515,1.550933,3.350908,1.477112,1.252562
LINE391,0.000000,3.051597,0.000000,-1.241540,24.708575,1.253179
LINE392,0.000000,1.774800,0.000000,3.127456,0.000000,4.712144
LINE393,0.000000,2.030109,0.237914,3.358170,0.000000,0.810561
LINE394,1.086625,-0.852154,167.928230,3.374063,0.255384,1.226943
LINE395,0.000000,1.014574,0.000000,0.320602,0.351468,1.252563
LINE396,1.602064,-0.860515,1.550933,3.350908,1.125645,1.252561
LINE397,0.000000,3.012203,0.000000,-1.333379,24.708575,1.253179
LINE398,0.000000,1.740165,0.000000,2.978146,0.000000,4.704432
LINE399,0.000000,0.612324,0.237914,3.358170,0.000000,4.655358
LINE400,1.086625,-0.852154,167.928230,3.374063,0.255384,1.226943
LINE401,0.000000,1.167500,0.000000,0.417856,0.351468,1.252563
LINE402,1.602064,-0.860515,1.550933,3.350908,1.125645,1.252561
LINE403,0.000000,2.878565,0.000000,-0.638227,24.708575,1.253179
LINE404,0.000000,1.642987,0.000000,3.031388,0.000000,4.702542
LINE405,0.000000,-0.899067,0.237914,3.358170,0.000000,-1.207150
LINE406,1.086625,-0.852154,167.928230,3.374063,0.255384,1.226943
LINE407,0.000000,1.344626,0.000000,0.427525,0.351468,1.252563
LINE408,1.602064,-0.860515,1.550933,3.350908,1.125645,1.252561
LINE409,0.000000,-0.793245,0.000000,3.600576,0.000000,2.155972
LINE410,0.000000,2.925209,0.000000,-0.628511,24.708575,1.253179
LINE411,0.000000,1.499730,0.000000,0.429116,0.000000,-1.566526
LINE412,1.086625,-0.852154,167.928230,3.374063,0.255384,1.226943
LINE413,0.000000,0.958078,0.000000,0.692495,0.351468,1.252563
LINE414,1.602064,-0.860515,1.550933,3.350908,1.125645,1.252561
LINE415,0.000000,-0.882556,0.000000,3.647175,0.000000,2.144105
LINE416,0.000000,2.949770,0.000000,4.678025,24.708575,1.253179
LINE417,0.000000,1.657496,0.000000,1.480996,0.000000,4.710743
LINE418,1.086625,-0.852154,167.928230,3.374063,0.255384,1.226943
LINE419,0.000000,0.630215,0.000000,1.072314,0.351468,1.252563
LINE420,1.602064,-0.860515,1.550933,3.350908,1.125645,1.252561
LINE421,0.000000,-0.769535,0.000000,3.699452,0.000000,2.347263
LINE422,0.000000,2.917731,0.000000,3.019940,24.708575,1.253179
LINE423,0.000000,1.592352,0.000000,0.278184,0.000000,-1.561612
LINE424,1.086625,-0.852154,167.928230,3.374063,0.255384,1.226943
LINE425,0.000000,1.213480,0.000000,-0.230048,0.000000,4.250427
LINE426,0.000000,0.555396,0.000000,0.581484,0.351468,1.252563
LINE427,1.602064,-0.860515,1.550933,3.350908,1.125645,1.252561
LINE428,0.000000,-0.914204,0.000000,3.782838,0.000000,2.143551
LINE429,0.000000,2.871249,0.000000,0.434117,24.708575,1.253179
LINE430,0.000000,1.588387,0.000000,0.445081,0.000000,-1.559717
LINE431,1.086625,-0.852154,167.928230,3.374063,0.255384,1.226943
LINE432,0.000000,0.882890,0.000000,2.343455,0.000000,4.390066
LINE433,0.000000,0.467107,0.000000,0.558264,0.351468,1.252563
LINE434,1.602064,-0.860515,1.550933,3.350908,1.125645,1.252561
LINE435,0.000000,-1.074557,0.000000,3.782182,0.000000,2.343921
LINE436,0.000000,2.757670,0.000000,0.920990,24.708575,1.253179
LINE437,0.000000,1.495835,0.000000,1.679808,0.000000,-1.555321
LINE438,1.086625,-0.852154,167.928230,3.374063,0.255384,1.226943
LINE439,0.000000,1.747976,0.000000,4.425614,0.000000,1.080388
LINE440,0.000000,0.480273,0.000000,0.400218,0.351468,1.252563
LINE441,1.602064,-0.860515,1.550933,3.350908,1.125645,1.252561
LINE442,0.000000,-1.055768,0.000000,3.699962,0.000000,2.329077
LINE443,0.000000,3.184625,0.000000,0.149614,24.708575,1.253179
LINE444,0.000000,1.409175,0.000000,1.959812,0.000000,-1.566676
LINE445,1.086625,-0.852154,167.928230,3.374063,0.255384,1.226943
LINE446,0.000000,3.395295,0.000000,-0.825262,0.000000,1.938410
LINE447,0.000000,0.405217,0.000000,0.341891,0.351468,1.252563
LINE448,1.602064,-0.860515,1.550933,3.350908,1.125645,1.252561
LINE449,0.000000,-0.703158,0.000000,3.685248,0.000000,2.471627
LINE450,0.000000,0.447983,0.000000,1.251225,24.708575,1.253179
LINE451,0.000000,1.389743,0.000000,2.587473,0.000000,-1.565718
LINE452,1.086625,-0.852154,167.928230,3.374063,0.255384,1.226943
LINE453,0.000000,-1.557119,0.000000,1.358512,0.000000,3.908633
LINE454,0.000000,0.325623,0.000000,1.561614,0.351468,1.252563
LINE455,1.602064,-0.860515,1.550933,3.350908,1.125645,1.252561
LINE456,0.000000,-0.827473,0.000000,3.809101,0.000000,2.640297
LINE457,0.000000,0.617477,0.000000,-0.201843,24.708575,1.253179
LINE458,0.000000,1.497174,0.000000,1.046888,0.000000,-1.563219
LINE459,0.894264,-0.851468,167.928230,3.374063,0.255384,1.226943
LINE460,0.000000,4.541948,0.000000,1.440249,0.000000,1.490746
LINE461,0.192363,-0.855342,0.000000,2.152394,0.000000,1.276404
LINE462,0.000000,0.423263,0.000000,0.832244,0.351468,1.252563
LINE463,1.602064,-0.860515,1.550933,3.350908,1.125645,1.252561
LINE464,0.000000,-1.126128,0.000000,4.056092,0.000000,2.116727
LINE465,0.000000,1.320802,0.000000,0.725265,0.000000,-1.557144
LINE466,0.894264,-0.851468,167.928230,3.374063,0.255384,1.226943
LINE467,0.000000,3.546313,0.000000,2.694091,0.000000,1.129758
LINE468,0.000000,-0.201681,0.000000,-0.201681,0.000000,2.996186
LINE469,0.192363,-0.855342,0.000000,2.083784,0.000000,1.340026
LINE470,0.000000,0.513063,0.000000,0.521531,0.351468,1.252563
LINE471,1.602064,-0.860515,1.550933,3.350908,1.125645,1.252561
LINE472,0.000000,-0.763681,0.000000,3.692394,0.000000,2.174146
LINE473,0.000000,1.335555,0.000000,0.903075,0.000000,-1.542014
LINE474,0.894264,-0.851468,167.928230,3.374063,0.255384,1.226943
LINE475,0.000000,1.092883,0.000000,2.808025,0.000000,-1.136974
LINE476,0.192363,-0.855342,0.000000,1.990103,0.000000,-1.057855
LINE477,0.000000,0.567615,0.000000,1.934860,0.351468,1.252563
LINE478,1.602064,-0.860515,1.550933,3.350908,1.125645,1.252561
LINE479,0.000000,-0.905484,0.000000,3.922145,0.000000,2.118760
LINE480,0.000000,1.119687,0.000000,1.513407,0.000000,-1.543996
LINE481,0.455013,-0.850070,167.928230,3.374063,0.255384,1.226943
LINE482,0.000000,0.348783,0.000000,3.431815,0.000000,1.221767
LINE483,0.439252,-0.852916,0.000000,2.136053,0.000000,2.715910
LINE484,0.192363,-0.855342,0.000000,1.977925,0.000000,-1.134094
LINE485,0.000000,0.571094,0.000000,1.380874,0.351468,1.252563
LINE486,1.602064,-0.860515,1.550933,3.350908,1.125645,1.252561
LINE487,0.000000,-1.084192,0.000000,4.185295,0.000000,2.089789
LINE488,0.000000,0.394131,0.000000,2.992017,0.000000,-1.537284
LINE489,0.455013,-0.850070,167.928230,3.374063,0.255384,1.226943
LINE490,0.000000,1.165606,0.000000,2.778120,0.000000,0.371870
LINE491,0.226023,-0.852917,0.000000,2.334854,0.000000,2.915805
LINE492,0.213229,-0.852916,0.000000,0.196079,0.000000,1.570226
LINE493,0.192363,-0.855342,0.000000,1.612540,0.000000,-0.883685
LINE494,0.000000,0.695460,0.000000,0.639082,0.351468,1.252563
LINE495,1.602064,-0.860515,1.550933,3.350908,1.125645,1.252561
LINE496,0.000000,-1.239372,0.000000,4.189293,0.000000,2.134297
LINE497,0.000000,2.299932,0.000000,-0.404584,0.000000,1.512685
LINE498,0.455013,-0.850070,167.928230,3.374063,0.255384,1.226943
LINE499,0.000000,1.609364,0.000000,2.830856,0.000000,1.518821
LINE500,0.226023,-0.852917,0.000000,1.654952,0.000000,2.728262
LINE501,0.213229,-0.852916,0.000000,0.076750,0.000000,1.550386
LINE502,0.192363,-0.855342,0.000000,1.528420,0.000000,1.180373
LINE503,0.000000,1.718103,0.000000,0.756885,0.351468,1.252563
LINE504,1.602064,-0.860515,1.550933,3.350908,1.125645,1.252561
LINE505,0.000000,-0.986689,0.000000,4.393327,0.000000,1.932860
LINE506,0.000000,-0.149575,0.000000,-0.149575,0.000000,3.066247
LINE507,0.455013,-0.850070,167.928230,3.374063,0.255384,1.226943
LINE508,0.000000,4.470419,0.000000,1.472960,0.000000,-1.558648
LINE509,0.226023,-0.852917,0.000000,1.724617,0.000000,4.075550
LINE510,0.192363,-0.855342,0.000000,1.786309,0.000000,0.659032
LINE511,0.000000,0.896475,0.000000,0.356421,0.351468,1.252563
LINE512,0.000000,-1.548643,0.145652,3.350910,0.000000,-1.533088
LINE513,1.602064,-0.860515,1.405281,3.350908,1.125645,1.252561
LINE514,0.000000,-0.779430,0.000000,4.693667,0.000000,2.022735
LINE515,0.000000,0.451890,167.928230,3.374063,0.255384,1.226943
LINE516,0.000000,-1.285587,0.000000,3.215342,0.000000,1.313317
LINE517,0.455013,-0.850070,0.000000,3.057703,0.000000,1.394550
LINE518,0.226023,-0.852917,0.000000,1.167920,0.000000,4.644611
LINE519,0.192363,-0.855342,0.000000,1.595645,0.000000,1.254226
LINE520,0.000000,0.632734,0.000000,0.487584,0.351468,1.252563
LINE521,0.000000,3.233105,0.145652,3.350910,0.000000,-1.425013
LINE522,1.602064,-0.860515,1.405281,3.350908,1.125645,1.252561
LINE523,0.000000,-0.494996,0.000000,4.389135,0.000000,1.984213
LINE524,0.000000,0.484798,167.928230,3.374063,0.255384,1.226943
LINE525,0.000000,2.135684,0.000000,2.135684,0.000000,-0.446348
LINE526,0.455013,-0.850070,0.000000,3.062878,0.000000,1.391691
LINE527,0.226023,-0.852917,0.000000,1.562236,0.000000,-1.558878
LINE528,0.192363,-0.855342,0.000000,2.019273,0.000000,1.467229
LINE529,0.000000,-1.245611,0.000000,2.029674,0.351468,1.252563
LINE530,1.602064,-0.860515,1.405281,3.350908,1.125645,1.252561
LINE531,0.000000,0.155261,0.000000,3.806622,0.000000,1.619493
LINE532,0.000000,0.462114,167.928230,3.374063,0.255384,1.226943
LINE533,0.000000,-1.365092,0.000000,1.331855,0.000000,1.895729
LINE534,0.455013,-0.850070,0.000000,3.043923,0.000000,1.395918
LINE535,0.226023,-0.852917,0.000000,0.410264,0.000000,-1.497534
LINE536,0.192363,-0.855342,0.000000,2.115289,0.000000,1.496312
LINE537,0.000000,-0.429150,0.000000,4.603407,0.124571,1.252563
LINE538,0.000000,2.962178,0.000000,4.415784,0.226897,1.252563
LINE539,1.602064,-0.860515,1.405281,3.350908,1.125645,1.252561
LINE540,0.000000,0.521350,0.000000,3.594959,0.000000,1.189019
LINE541,0.000000,0.446866,167.928230,3.374063,0.255384,1.226943
LINE542,0.000000,0.344377,0.000000,0.344377,0.000000,1.868340
LINE543,0.455013,-0.850070,0.000000,3.037576,0.000000,1.407670
LINE544,0.226023,-0.852917,0.000000,0.429839,0.000000,1.545961
LINE545,0.192363,-0.855342,0.000000,2.031698,0.000000,1.495873
LINE546,0.000000,-0.536192,0.000000,3.256375,0.124571,1.252563
LINE547,1.602064,-0.860515,1.405281,3.350908,1.125645,1.252561
LINE548,0.000000,0.658135,0.000000,3.517552,0.000000,1.325154
LINE549,0.000000,0.431994,167.928230,3.374063,0.255384,1.226943
LINE550,0.000000,3.564409,0.000000,3.564409,0.000000,1.440849
LINE551,0.225380,-0.850070,0.000000,3.150567,0.000000,1.439885
LINE552,0.229633,-0.850070,0.000000,0.430956,0.000000,4.687739
LINE553,0.226023,-0.852917,0.000000,-0.865150,0.000000,1.559533
LINE554,0.192363,-0.855342,0.000000,2.279620,0.000000,1.487032
LINE555,0.000000,3.344649,0.000000,0.676686,0.124571,1.252563
LINE556,1.602064,-0.860515,1.405281,3.350908,1.125645,1.252561
LINE557,0.000000,1.049973,0.000000,3.557179,0.000000,1.174595
LINE558,0.000000,0.436608,167.928230,3.374063,0.255384,1.226943
LINE559,0.000000,2.087247,0.000000,3.930432,0.000000,3.635985
LINE560,0.225380,-0.850070,0.000000,2.967970,0.000000,1.440599
LINE561,0.229633,-0.850070,0.000000,-1.529128,0.000000,-1.525641
LINE562,0.226023,-0.852917,0.000000,0.361273,0.000000,2.132527
LINE563,0.192363,-0.855342,0.000000,1.936466,0.000000,1.495123
LINE564,1.602064,-0.860515,1.405281,3.350908,1.125645,1.252561
LINE565,0.000000,4.531840,0.000000,1.053530,0.000000,1.799475
LINE566,0.000000,0.183797,167.474977,3.374079,0.255384,1.226943
LINE567,0.000000,0.717123,0.000000,-0.316172,0.000000,1.498243
LINE568,0.000000,1.402191,0.453261,3.368126,0.000000,-1.533441
LINE569,0.225380,-0.850070,0.000000,3.184628,0.000000,1.475592
LINE570,0.192363,-0.855342,0.000000,1.646676,0.000000,1.464182
LINE571,1.602064,-0.860515,1.405281,3.350908,1.125645,1.252561
LINE572,0.000000,0.270043,167.474977,3.374079,0.255384,1.226943
LINE573,0.000000,3.058011,0.000000,2.989807,0.000000,1.486824
LINE574,0.000000,1.317648,0.453261,3.368126,0.000000,-1.532968
LINE575,0.225380,-0.850070,0.000000,3.381163,0.000000,1.479198
LINE576,0.192363,-0.855342,0.000000,0.891930,0.000000,4.041050
LINE577,1.602064,-0.860515,1.405281,3.350908,1.125645,1.252561
LINE578,0.000000,0.872395,167.474977,3.374079,0.255384,1.226943
LINE579,0.000000,1.702357,0.000000,4.491109,0.000000,-1.292698
LINE580,0.000000,0.281080,0.000000,1.993209,0.000000,0.624184
LINE581,0.000000,1.470387,0.453261,3.368126,0.000000,-1.532686
LINE582,0.225380,-0.850070,0.000000,2.954391,0.000000,1.511096
LINE583,0.192363,-0.855342,0.000000,3.584339,0.000000,1.498979
LINE584,0.000000,-0.241306,0.124233,3.350910,0.000000,1.633517
LINE585,1.602064,-0.860515,1.281048,3.350908,1.125645,1.252561
LINE586,0.000000,1.943336,167.474977,3.374079,0.255384,1.226943
LINE587,0.000000,0.751843,0.000000,0.751843,0.000000,2.764440
LINE588,0.000000,0.001399,0.000000,1.834229,0.000000,-0.080533
LINE589,0.000000,1.790323,0.453261,3.368126,0.000000,-1.544964
LINE590,0.225380,-0.850070,0.000000,3.435221,0.000000,4.492331
LINE591,0.192363,-0.855342,0.000000,-0.908879,0.000000,1.548092
LINE592,0.000000,-0.238438,0.124233,3.350910,0.000000,1.632129
LINE593,1.602064,-0.860515,1.281048,3.350908,1.125645,1.252561
LINE594,0.000000,-1.070625,167.474977,3.374079,0.000000,3.980055
LINE595,0.000000,2.502683,0.000000,1.795513,0.255384,1.226943
LINE596,0.000000,-0.050400,0.000000,1.580108,0.000000,-1.083223
LINE597,0.000000,1.580123,0.453261,3.368126,0.000000,-1.546279
LINE598,0.225380,-0.850070,0.000000,4.459714,0.000000,1.558385
LINE599,0.192363,-0.855342,0.000000,3.933003,0.000000,1.586719
LINE600,0.000000,-0.208742,0.124233,3.350910,0.000000,1.632167
LINE601,0.000000,3.430284,0.000000,-0.140704,0.249148,1.252562
LINE602,1.602064,-0.860515,1.281048,3.350908,0.876497,1.252561
LINE603,0.000000,3.363762,167.474977,3.374079,0.000000,3.397740
LINE604,0.000000,3.959296,0.000000,3.386119,0.000000,-0.597745
LINE605,0.000000,-1.263363,0.000000,-0.334654,0.000000,1.522659
LINE606,0.000000,-1.526626,0.000000,-1.014912,0.255384,1.226943
LINE607,0.000000,1.494132,0.000000,4.636324,0.000000,4.699462
LINE608,0.000000,-0.135795,0.000000,1.946666,0.000000,2.600498
LINE609,0.000000,1.558650,0.453261,3.368126,0.000000,-1.547227
LINE610,0.225380,-0.850070,0.000000,2.787022,0.000000,1.409799
LINE611,0.192363,-0.855342,0.000000,2.713310,0.000000,1.692543
LINE612,0.000000,-0.185810,0.124233,3.350910,0.000000,1.616696
LINE613,0.000000,3.634450,0.000000,0.179817,0.249148,1.252562
LINE614,1.602064,-0.860515,1.281048,3.350908,0.876497,1.252561
LINE615,0.000000,4.644870,167.474977,3.374079,0.000000,1.503278
LINE616,0.000000,3.595831,0.000000,-0.044616,0.000000,4.620133
LINE617,0.000000,2.939912,0.000000,-0.143173,0.000000,2.901028
LINE618,0.000000,-1.393352,0.000000,-1.259715,0.255384,1.226943
LINE619,0.000000,-0.166541,0.000000,2.352829,0.000000,4.051023
LINE620,0.000000,1.574955,0.453261,3.368126,0.000000,-1.546530
LINE621,0.192363,-0.855342,0.000000,2.395754,0.000000,1.659874
LINE622,0.000000,-0.141248,0.124233,3.350910,0.000000,1.615829
LINE623,0.000000,1.496272,0.222769,3.350906,0.000000,4.635606
LINE624,1.602064,-0.860515,1.058279,3.350909,0.876497,1.252561
LINE625,0.000000,4.644870,167.474977,3.374079,0.000000,1.440859
LINE626,0.000000,-0.127320,0.000000,2.870586,0.000000,2.080189
LINE627,0.000000,1.520797,0.453261,3.368126,0.000000,-1.550810
LINE628,0.192363,-0.855342,0.000000,-0.118275,0.000000,4.498233
LINE629,0.000000,-0.246674,0.124233,3.350910,0.000000,1.611762
LINE630,0.000000,0.949860,0.222769,3.350906,0.000000,4.693361
LINE631,1.602064,-0.860515,1.058279,3.350909,0.876497,1.252561
LINE632,0.000000,-0.531166,167.474977,3.374079,0.000000,1.440859
LINE633,0.000000,-0.102542,0.000000,-0.419780,0.000000,-1.460587
LINE634,0.000000,1.338280,0.453261,3.368126,0.000000,-1.547160
LINE635,0.000000,-0.248140,0.124233,3.350910,0.000000,1.615000
LINE636,0.000000,2.507775,0.222769,3.350906,0.000000,4.469319
LINE637,1.602064,-0.860515,1.058279,3.350909,0.876497,1.252561
LINE638,0.000000,0.000000,167.474977,3.374079,0.000000,3.074074
LINE639,0.000000,0.276444,0.000000,2.788328,0.000000,-1.504458
LINE640,0.000000,1.329035,0.453261,3.368126,0.000000,-1.540254
LINE641,0.000000,-0.248681,0.124233,3.350910,0.000000,1.610060
LINE642,0.000000,1.013994,0.222769,3.350906,0.000000,1.588690
LINE643,1.602064,-0.860515,1.058279,3.350909,0.876497,1.252561
LINE644,0.000000,0.244023,0.000000,3.099428,0.000000,4.245488
LINE645,0.000000,1.298490,0.453261,3.368126,0.000000,-1.533612
LINE646,0.000000,-0.267215,0.124233,3.350910,0.000000,1.612904
LINE647,0.000000,2.238035,0.222769,3.350906,0.000000,1.633392
LINE648,1.602064,-0.860515,1.058279,3.350909,0.876497,1.252561
LINE649,0.000000,0.456990,0.000000,1.336965,0.000000,4.696200
LINE650,0.000000,1.020142,0.453261,3.368126,0.000000,-1.555984
LINE651,0.000000,-0.265848,0.124233,3.350910,0.000000,1.596765
LINE652,0.000000,2.364081,0.222769,3.350906,0.000000,1.632833
LINE653,1.602064,-0.860515,1.058279,3.350909,0.876497,1.252561
LINE654,0.000000,-0.033780,0.000000,2.144923,0.000000,4.324673
LINE655,0.000000,-0.698644,0.203967,3.368126,0.000000,-1.486659
LINE656,0.000000,-0.981255,0.249294,3.368127,0.000000,1.427745
LINE657,0.000000,-0.293531,0.124233,3.350910,0.000000,1.592953
LINE658,0.000000,2.484072,0.222769,3.350906,0.000000,1.677210
LINE659,1.602064,-0.860515,1.058279,3.350909,0.876497,1.252561
LINE660,0.000000,0.034868,0.000000,0.690889,0.000000,1.369524
LINE661,0.000000,-0.704482,0.203967,3.368126,0.000000,-1.549966
LINE662,0.000000,0.717960,0.249294,3.368127,0.000000,1.516499
LINE663,0.000000,-0.269539,0.124233,3.350910,0.000000,1.597479
LINE664,0.000000,2.858809,0.222769,3.350906,0.000000,1.590848
LINE665,1.602064,-0.860515,1.058279,3.350909,0.876497,1.252561
LINE666,0.000000,0.694764,0.000000,0.836286,0.000000,1.048808
LINE667,0.000000,2.794491,0.203967,3.368126,0.000000,-1.520945
LINE668,0.000000,2.008771,0.249294,3.368127,0.000000,1.635515
LINE669,0.000000,-0.257837,0.124233,3.350910,0.000000,1.602514
LINE670,0.000000,3.243933,0.222769,3.350906,0.000000,0.992753
LINE671,0.701431,-0.860529,0.000000,0.094952,0.000000,4.667393
LINE672,0.900633,-0.860504,1.058279,3.350909,0.876497,1.252561
LINE673,0.000000,-0.194816,0.000000,1.876877,0.000000,4.109627
LINE674,0.000000,1.765720,0.203967,3.368126,0.000000,4.664266
LINE675,0.000000,1.397546,0.249294,3.368127,0.000000,4.644593
LINE676,0.000000,-0.313718,0.124233,3.350910,0.000000,1.597571
LINE677,0.000000,3.642254,0.222769,3.350906,0.000000,4.676561
LINE678,0.701431,-0.860529,0.000000,0.197631,0.000000,4.674423
LINE679,0.900633,-0.860504,1.058279,3.350909,0.876497,1.252561
LINE680,0.000000,1.450111,0.000000,4.404819,0.000000,1.513301
LINE681,0.000000,0.698525,0.203967,3.368126,0.000000,4.558406
LINE682,0.000000,-0.240667,0.124233,3.350910,0.000000,1.597620
LINE683,0.000000,-1.534302,0.222769,3.350906,0.000000,1.606463
LINE684,0.701431,-0.860529,0.000000,0.145893,0.000000,4.650030
LINE685,0.900633,-0.860504,1.058279,3.350909,0.876497,1.252561
LINE686,0.000000,-0.312036,0.124233,3.350910,0.000000,1.603147
LINE687,0.000000,0.838439,0.222769,3.350906,0.000000,1.625896
LINE688,0.701431,-0.860529,0.000000,0.283583,0.000000,4.669517
LINE689,0.000000,-0.256624,0.000000,3.420075,0.453815,1.252565
LINE690,0.900633,-0.860504,1.058279,3.350909,0.422682,1.252557
LINE691,0.000000,-0.347958,0.124233,3.350910,0.000000,1.607871
LINE692,0.701431,-0.860529,0.000000,0.215803,0.000000,4.672211
LINE693,0.000000,-0.240666,0.000000,3.414000,0.240255,1.252565
LINE694,0.000000,-0.986551,0.000000,3.966391,0.213560,1.252565
LINE695,0.000000,-0.936029,0.184219,3.350903,0.000000,1.057786
LINE696,0.900633,-0.860504,0.874060,3.350910,0.422682,1.252557
LINE697,0.000000,-0.314936,0.124233,3.350910,0.000000,1.596691
LINE698,0.701431,-0.860529,0.000000,0.239316,0.000000,4.642403
LINE699,0.000000,-0.223064,0.000000,3.487118,0.240255,1.252565
LINE700,0.000000,0.118111,0.000000,1.710976,0.213560,1.252565
LINE701,0.000000,4.347142,0.184219,3.350903,0.000000,4.663884
LINE702,0.900633,-0.860504,0.874060,3.350910,0.422682,1.252557
LINE703,0.000000,-0.285075,0.124233,3.350910,0.000000,1.603644
LINE704,0.701431,-0.860529,0.000000,0.213619,0.000000,4.651942
LINE705,0.000000,-0.153670,0.000000,3.720544,0.240255,1.252565
LINE706,0.900633,-0.860504,0.874060,3.350910,0.422682,1.252557
LINE707,0.000000,3.024072,0.000000,-1.564934,0.000000,4.565015
LINE708,0.000000,-0.277607,0.124233,3.350910,0.000000,1.605745
LINE709,0.701431,-0.860529,0.000000,0.186170,0.000000,4.653936
LINE710,0.000000,-0.095510,0.000000,3.709037,0.240255,1.252565
LINE711,0.463316,-0.860490,0.874060,3.350910,0.422682,1.252557
LINE712,0.437317,-0.860518,0.000000,4.117661,0.000000,1.494313
LINE713,0.000000,2.783860,0.000000,-0.420848,0.000000,4.507883
LINE714,0.000000,-0.210617,0.124233,3.350910,0.000000,1.608200
LINE715,0.701431,-0.860529,0.000000,0.186034,0.000000,4.650130
LINE716,0.000000,0.192356,0.000000,3.750999,0.240255,1.252565
LINE717,0.463316,-0.860490,0.874060,3.350910,0.422682,1.252557
LINE718,0.437317,-0.860518,0.000000,4.136630,0.000000,1.492036
LINE719,0.000000,2.649332,0.000000,3.775274,0.000000,4.516498
LINE720,0.000000,-0.213041,0.124233,3.350910,0.000000,1.612346
LINE721,0.701431,-0.860529,0.000000,0.194076,0.000000,4.651639
LINE722,0.000000,0.616785,0.000000,3.169650,0.240255,1.252565
LINE723,0.463316,-0.860490,0.424189,3.350909,0.422682,1.252557
LINE724,0.000000,-0.360377,0.449871,3.350910,0.000000,1.300712
LINE725,0.437317,-0.860518,0.000000,4.065497,0.000000,1.473015
LINE726,0.000000,2.780113,0.000000,-0.918102,0.000000,4.518686
LINE727,0.000000,-0.056237,0.124233,3.350910,0.000000,1.824378
LINE728,0.701431,-0.860529,0.000000,0.190427,0.000000,4.646527
LINE729,0.000000,0.437177,0.000000,3.999531,0.240255,1.252565
LINE730,0.463316,-0.860490,0.424189,3.350909,0.422682,1.252557
LINE731,0.000000,-0.357282,0.449871,3.350910,0.000000,1.298818
LINE732,0.437317,-0.860518,0.000000,3.856958,0.000000,1.458604
LINE733,0.000000,2.915996,0.000000,3.790875,0.000000,4.454370
LINE734,0.000000,-0.050816,0.124233,3.350910,0.000000,4.549241
LINE735,0.701431,-0.860529,0.000000,0.198744,0.000000,4.654835
LINE736,0.000000,1.204681,0.000000,0.764854,0.240255,1.252565
LINE737,0.463316,-0.860490,0.424189,3.350909,0.422682,1.252557
LINE738,0.000000,-0.328055,0.449871,3.350910,0.000000,1.262422
LINE739,0.437317,-0.860518,0.000000,3.933630,0.000000,1.481672
LINE740,0.000000,3.150239,0.000000,4.480303,0.000000,4.550760
LINE741,0.000000,0.043389,0.124233,3.350910,0.000000,4.319889
LINE742,0.701431,-0.860529,0.000000,0.159978,0.000000,4.637886
LINE743,0.000000,-1.336863,0.000000,-0.343408,0.240255,1.252565
LINE744,0.463316,-0.860490,0.424189,3.350909,0.422682,1.252557
LINE745,0.000000,4.667501,0.222793,3.350911,0.000000,-1.565023
LINE746,0.000000,-0.470123,0.227078,3.350910,0.000000,1.229850
LINE747,0.437317,-0.860518,0.000000,3.839469,0.000000,1.491407
LINE748,0.000000,3.189423,0.000000,4.575120,0.000000,3.965483
LINE749,0.000000,0.191535,0.124233,3.350910,0.000000,4.668147
LINE750,0.701431,-0.860529,0.000000,0.250980,0.000000,4.645245
LINE751,0.000000,-0.935507,0.000000,4.516433,0.240255,1.252565
LINE752,0.463316,-0.860490,0.424189,3.350909,0.000000,1.614137
LINE753,0.000000,-0.681834,0.000000,3.878180,0.422682,1.252557
LINE754,0.000000,-0.787806,0.222793,3.350911,0.000000,-1.547344
LINE755,0.000000,-0.315352,0.227078,3.350910,0.000000,1.005049
LINE756,0.437317,-0.860518,0.000000,3.937119,0.000000,1.493861
LINE757,0.000000,2.934367,0.000000,4.399803,0.000000,4.447835
LINE758,0.000000,0.920099,0.124233,3.350910,0.000000,2.733624
LINE759,0.701431,-0.860529,0.000000,0.229065,0.000000,4.641591
LINE760,0.000000,3.874121,0.000000,3.318380,0.240255,1.252565
LINE761,0.463316,-0.860490,0.424189,3.350909,0.000000,1.639558
LINE762,0.000000,-0.689171,0.000000,3.887636,0.422682,1.252557
LINE763,0.000000,-0.251621,0.227078,3.350910,0.000000,0.974437
LINE764,0.437317,-0.860518,0.000000,3.980977,0.000000,1.503863
LINE765,0.000000,2.899156,0.000000,-0.326624,0.000000,4.547390
LINE766,0.000000,0.352500,0.124233,3.350910,0.000000,1.585577
LINE767,0.701431,-0.860529,0.000000,0.229315,0.000000,4.633403
LINE768,0.000000,4.596543,0.000000,4.423618,0.240255,1.252565
LINE769,0.463316,-0.860490,0.424189,3.350909,0.000000,1.643796
LINE770,0.000000,0.154198,0.000000,3.643411,0.222465,1.252557
LINE771,0.000000,-0.627526,0.000000,4.011066,0.200218,1.252557
LINE772,0.000000,-0.029597,0.227078,3.350910,0.000000,0.180685
LINE773,0.437317,-0.860518,0.000000,3.961161,0.000000,1.503323
LINE774,0.000000,3.080693,0.000000,0.078598,0.000000,-1.482262
LINE775,0.000000,1.849752,0.124233,3.350910,0.000000,4.707834
LINE776,0.701431,-0.860529,0.000000,0.204743,0.000000,4.659358
LINE777,0.000000,3.183222,0.000000,-0.394706,0.240255,1.252565
LINE778,0.463316,-0.860490,0.424189,3.350909,0.000000,1.629254
LINE779,0.000000,0.261567,0.000000,3.611260,0.222465,1.252557
LINE780,0.000000,-0.614546,0.000000,3.987881,0.200218,1.252557
LINE781,0.000000,0.458566,0.227078,3.350910,0.000000,-1.480704
LINE782,0.437317,-0.860518,0.000000,4.036855,0.000000,1.509444
LINE783,0.000000,2.705078,0.000000,-0.258018,0.000000,-1.519370
LINE784,0.000000,4.254991,0.124233,3.350910,0.000000,1.801485
LINE785,0.701431,-0.860529,0.000000,0.182371,0.000000,4.662340
LINE786,0.463316,-0.860490,0.424189,3.350909,0.000000,1.644228
LINE787,0.000000,-0.736419,0.000000,4.619440,0.200218,1.252557
LINE788,0.000000,0.299271,0.227078,3.350910,0.000000,-1.476426
LINE789,0.437317,-0.860518,0.000000,3.965356,0.000000,1.502301
LINE790,0.000000,2.397077,0.000000,4.126385,0.000000,0.721552
LINE791,0.432982,-0.860530,0.000000,0.175641,0.000000,4.640827
LINE792,0.268449,-0.860529,0.000000,-0.451019,0.000000,2.354285
LINE793,0.463316,-0.860490,0.424189,3.350909,0.000000,1.636581
LINE794,0.000000,-0.777926,0.000000,-1.403862,0.200218,1.252557
LINE795,0.000000,-0.507888,0.227078,3.350910,0.000000,1.500547
LINE796,0.437317,-0.860518,0.000000,4.095310,0.000000,1.510479
LINE797,0.000000,1.431012,0.000000,3.632255,0.000000,3.831306
LINE798,0.432982,-0.860530,0.000000,0.089945,0.000000,4.634879
LINE799,0.268449,-0.860529,0.000000,4.137127,0.000000,1.599071
LINE800,0.463316,-0.860490,0.000000,-0.578640,0.000000,1.683557
LINE801,0.000000,1.091536,0.424189,3.350909,0.000000,-1.226918
LINE802,0.000000,-0.876066,0.000000,-1.476664,0.200218,1.252557
LINE803,0.000000,4.284363,0.227078,3.350910,0.000000,1.713139
LINE804,0.437317,-0.860518,0.000000,4.036679,0.000000,1.472946
LINE805,0.000000,2.947644,0.000000,2.220405,0.000000,-1.350245
LINE806,0.432982,-0.860530,0.000000,0.167999,0.000000,4.652654
LINE807,0.268449,-0.860529,0.000000,-0.735716,0.000000,1.552566
LINE808,0.463316,-0.860490,0.000000,-0.075971,0.000000,1.747403
LINE809,0.000000,1.018979,0.424189,3.350909,0.000000,-1.242013
LINE810,0.000000,1.588242,0.000000,1.994252,0.000000,0.482346
LINE811,0.000000,-0.673538,0.000000,-1.181228,0.200218,1.252557
LINE812,0.000000,4.390226,0.227078,3.350910,0.000000,1.621988
LINE813,0.437317,-0.860518,0.000000,4.337378,0.000000,1.468869
LINE814,0.000000,-0.923158,0.000000,3.312111,0.000000,1.298901
LINE815,0.432982,-0.860530,0.000000,0.172095,0.000000,4.643838
LINE816,0.268449,-0.860529,0.000000,1.129959,0.000000,1.561996
LINE817,0.463316,-0.860490,0.000000,0.090809,0.000000,1.737029
LINE818,0.000000,1.046834,0.424189,3.350909,0.000000,-1.305891
LINE819,0.000000,-0.288631,0.000000,-0.288631,0.000000,-1.122693
LINE820,0.000000,-0.995703,0.000000,-0.995703,0.200218,1.252557
LINE821,0.437317,-0.860518,0.000000,4.481284,0.000000,1.498737
LINE822,0.000000,3.792204,0.000000,3.775082,0.000000,2.146559
LINE823,0.432982,-0.860530,0.000000,0.094168,0.000000,4.613287
LINE824,0.463316,-0.860490,0.000000,0.144274,0.000000,1.834076
LINE825,0.000000,1.066110,0.424189,3.350909,0.000000,-1.359594
LINE826,0.000000,3.691961,0.000000,-1.244957,0.000000,2.141818
LINE827,0.000000,-0.088626,0.000000,3.946159,0.200218,1.252557
LINE828,0.437317,-0.860518,0.000000,4.518411,0.000000,1.461274
LINE829,0.000000,-0.447832,0.000000,3.715161,0.000000,1.698140
LINE830,0.432982,-0.860530,0.000000,-0.114284,0.000000,4.605743
LINE831,0.463316,-0.860490,0.000000,0.149391,0.000000,2.215238
LINE832,0.000000,1.038267,0.424189,3.350909,0.000000,-1.277362
LINE833,0.000000,3.520459,0.000000,-0.611434,0.000000,1.897265
LINE834,0.000000,-1.280016,0.000000,2.476290,0.200218,1.252557
LINE835,0.437317,-0.860518,0.000000,4.591003,0.000000,1.474171
LINE836,0.432982,-0.860530,0.000000,-0.499300,0.000000,4.611994
LINE837,0.463316,-0.860490,0.000000,0.236632,0.000000,2.437075
LINE838,0.000000,0.931524,0.424189,3.350909,0.000000,4.597438
LINE839,0.000000,2.675378,0.000000,2.675378,0.000000,2.010226
LINE840,0.437317,-0.860518,0.000000,4.592149,0.000000,1.471015
LINE841,0.432982,-0.860530,0.000000,0.022434,0.000000,4.616733
LINE842,0.463316,-0.860490,0.000000,0.211288,0.000000,4.382287
LINE843,0.000000,0.632374,0.424189,3.350909,0.000000,1.686030
LINE844,0.000000,1.001088,0.000000,1.488255,0.000000,-1.524092
LINE845,0.000000,2.390613,0.000000,-1.289872,0.000000,1.085070
LINE846,0.437317,-0.860518,0.000000,4.571322,0.000000,1.468517
LINE847,0.432982,-0.860530,0.000000,3.027205,0.000000,1.494204
LINE848,0.463316,-0.860490,0.000000,0.175680,0.000000,1.701233
LINE849,0.000000,0.520484,0.424189,3.350909,0.000000,3.074074
LINE850,0.000000,1.013192,0.000000,1.507571,0.000000,-1.495731
LINE851,0.000000,1.310570,0.000000,0.131164,0.000000,-1.135465
LINE852,0.437317,-0.860518,0.000000,-1.501133,0.000000,1.490725
LINE853,0.432982,-0.860530,0.000000,3.974808,0.000000,1.590009
LINE854,0.463316,-0.860490,0.000000,0.202888,0.000000,1.775151
LINE855,0.000000,0.607222,0.424189,3.350909,0.000000,1.658592
LINE856,0.000000,0.968440,0.000000,1.673854,0.000000,4.681217
LINE857,0.000000,1.699160,0.000000,0.371640,0.000000,4.198928
LINE858,0.437317,-0.860518,0.000000,4.088683,0.000000,1.353349
LINE859,0.199171,-0.860530,0.000000,0.325614,0.000000,1.523757
LINE860,0.233811,-0.860529,0.000000,2.743437,0.000000,1.630456
LINE861,0.463316,-0.860490,0.000000,0.207362,0.000000,1.775986
LINE862,0.000000,0.717880,0.424189,3.350909,0.000000,1.685322
LINE863,0.000000,0.860487,0.000000,0.676209,0.000000,4.327216
LINE864,0.000000,-0.201681,0.000000,3.012336,0.000000,3.036556
LINE865,0.437317,-0.860518,0.000000,3.649937,0.000000,0.686528
LINE866,0.463316,-0.860490,0.000000,0.204748,0.000000,1.676207
LINE867,0.000000,0.717880,0.424189,3.350909,0.000000,1.625228
LINE868,0.000000,0.598947,0.000000,-0.034503,0.000000,1.706202
LINE869,0.000000,2.168001,0.000000,0.253773,0.000000,2.573702
LINE870,0.437317,-0.860518,0.000000,4.329068,0.000000,0.932764
LINE871,0.463316,-0.860490,0.000000,0.216057,0.000000,1.659823
LINE872,0.000000,-0.067519,0.201383,3.350909,0.000000,1.647771
LINE873,0.000000,1.503278,0.222806,3.350909,0.000000,-0.067519
LINE874,0.000000,0.468725,0.000000,-0.387701,0.000000,-0.479314
LINE875,0.000000,2.174673,0.000000,0.373608,0.000000,1.857531
LINE876,0.437317,-0.860518,0.000000,0.614757,0.000000,1.472188
LINE877,0.463316,-0.860490,0.000000,0.219851,0.000000,1.667370
LINE878,0.000000,0.000000,0.201383,3.350909,0.000000,1.732571
LINE879,0.000000,1.503278,0.222806,3.350909,0.000000,3.074074
LINE880,0.000000,0.630814,0.000000,2.604986,0.000000,1.603817
LINE881,0.000000,2.581505,0.000000,0.543412,0.000000,2.083103
LINE882,0.437317,-0.860518,0.000000,0.530405,0.000000,1.539260
LINE883,0.463316,-0.860490,0.000000,0.260698,0.000000,1.673306
LINE884,0.000000,0.396129,0.201383,3.350909,0.000000,3.074074
LINE885,0.000000,0.396129,0.222806,3.350909,0.000000,3.074074
LINE886,0.437317,-0.860518,0.000000,-1.569197,0.000000,1.272668
LINE887,0.238153,-0.860490,0.000000,0.257993,0.000000,1.620023
LINE888,0.225163,-0.860490,0.000000,3.482499,0.000000,1.578490
LINE889,0.000000,1.039630,0.201383,3.350909,0.000000,3.074074
LINE890,0.437317,-0.860518,0.000000,1.235123,0.000000,1.488599
LINE891,0.238153,-0.860490,0.000000,0.185195,0.000000,1.620826
LINE892,0.225163,-0.860490,0.000000,3.361712,0.000000,1.620424
LINE893,0.000000,1.503278,0.201383,3.350909,0.000000,-0.067519
LINE894,0.207834,-0.860517,0.000000,2.145224,0.000000,4.637417
LINE895,0.229482,-0.860519,0.000000,2.157477,0.000000,-1.557891
LINE896,0.238153,-0.860490,0.000000,0.176219,0.000000,4.660985
LINE897,0.225163,-0.860490,0.000000,-0.859541,0.000000,1.563625
LINE898,0.000000,0.000000,0.201383,3.350909,0.000000,0.000000
LINE899,0.207834,-0.860517,0.000000,2.970068,0.000000,2.000213
LINE900,0.238153,-0.860490,0.000000,0.206237,0.000000,-1.565517
LINE901,0.238153,-0.860490,0.000000,0.404227,0.000000,-1.546752
LINE902,0.238153,-0.860490,0.000000,-0.943510,0.000000,1.251889
LINE903,0.238153,-0.860490,0.000000,-0.087364,0.000000,1.652310
LINE904,0.238153,-0.860490,0.000000,3.869790,0.000000,4.516111
LINE905,0.238153,-0.860490,0.000000,-0.924816,0.000000,1.493513
